-------------------------------------------------------
          Amber 12 SANDER                              2012
          -------------------------------------------------------

  [-O]verwriting output

File Assignments:

 Here is the input file:

10ps MD
&cntrl
imin = 0, irest = 0, ntx = 1, iwrap=1,
ntb = 2, pres0 = 1.0, ntp = 1,
taup = 2.0,ig=-1,
cut = 10.0, ntr = 0,
ntc = 2, ntf = 2,
tempi = 350, temp0 = 350,
ntt = 3, gamma_ln = 1.0,
nstlim = 1000000, dt = 0.002,
ntpr = 5000, ntwx = 5000, ntwr = 5000
/

Note: ig = -1. Setting random seed based on wallclock time in microseconds
      and disabling the synchronization of random numbers between tasks
      to improve performance.

--------------------------------------------------------------------------------
   1.  RESOURCE   USE:
--------------------------------------------------------------------------------

 getting new box info from bottom of inpcrd

 NATOM  =    9415 NTYPES =      17 NBONH =    9006 MBONA  =     415
 NTHETH =     836 MTHETA =     559 NPHIH =    1816 MPHIA  =    1809
 NHPARM =       0 NPARM  =       0 NNB   =   15761 NRES   =    2930
 NBONA  =     415 NTHETA =     559 NPHIA =    1809 NUMBND =      63
 NUMANG =     136 NPTRA  =     221 NATYP =      35 NPHB   =       1
 IFBOX  =       1 NMXRS  =      24 IFCAP =       0 NEXTRA =       0
 NCOPY  =       0

     BOX TYPE: RECTILINEAR

--------------------------------------------------------------------------------
   2.  CONTROL  DATA  FOR  THE  RUN
--------------------------------------------------------------------------------

default_name

General flags:
     imin    =       0, nmropt  =       0

Nature and format of input:
     ntx     =       1, irest   =       0, ntrx    =       1

Nature and format of output:
     ntxo    =       1, ntpr    =    5000, ntrx    =       1, ntwr    =    5000
     iwrap   =       1, ntwx    =    5000, ntwv    =       0, ntwe    =       0
     ioutfm  =       0, ntwprt  =       0, idecomp =       0, rbornstat=      0

Potential function:
     ntf     =       2, ntb     =       2, igb     =       0, nsnb    =      25
     ipol    =       0, gbsa    =       0, iesp    =       0
     dielc   =   1.00000, cut     =  10.00000, intdiel =   1.00000

Frozen or restrained atoms:
     ibelly  =       0, ntr     =       0

Molecular dynamics:
     nstlim  =   1000000, nscm    =      1000, nrespa  =         1
     t       =   0.00000, dt      =   0.00200, vlimit  =  20.00000

Langevin dynamics temperature regulation:
     ig      =  472123
     temp0   = 350.00000, tempi   = 350.00000, gamma_ln=   1.00000

Pressure regulation:
     ntp     =       1
     pres0   =   1.00000, comp    =  44.60000, taup    =   2.00000

SHAKE:
     ntc     =       2, jfastw  =       0
     tol     =   0.00001

Ewald parameters:
     verbose =       0, ew_type =       0, nbflag  =       1, use_pme =       1
     vdwmeth =       1, eedmeth =       1, netfrc  =       1
     Box X =   50.172   Box Y =   52.317   Box Z =   49.050
     Alpha =   90.000   Beta  =   90.000   Gamma =   90.000
     NFFT1 =   54       NFFT2 =   54       NFFT3 =   50
     Cutoff=   10.000   Tol   =0.100E-04
     Ewald Coefficient =  0.27511
     Interpolation order =    4

--------------------------------------------------------------------------------
   3.  ATOMIC COORDINATES AND VELOCITIES
--------------------------------------------------------------------------------

default_name
 begin time read from input coords =   100.000 ps

 Number of triangulated 3-point waters found:     2879

     Sum of charges from parm topology file =  -0.00000001
     Forcing neutrality...

--------------------------------------------------------------------------------
   4.  RESULTS
 NSTEP =        0   TIME(PS) =     100.000  TEMP(K) =   506.79  PRESS =  -396.6
 Etot   =    -17453.8273  EKtot   =      9687.5969  EPtot      =    -27141.4242
 BOND   =       135.5285  ANGLE   =       313.5453  DIHED      =       892.2854
 1-4 NB =       166.0936  1-4 EEL =      1274.5572  VDWAALS    =      3131.3754
 EELEC  =    -33054.8097  EHBOND  =         0.0000  RESTRAINT  =         0.0000
 EKCMT  =      2982.6430  VIRIAL  =      4085.2360  VOLUME     =    128748.1380
                                                    Density    =         0.7448
 Ewald error estimate:   0.1353E-03
 ------------------------------------------------------------------------------

      A V E R A G E S   O V E R     200 S T E P S

 NSTEP =  1000000   TIME(PS) =    2100.000  TEMP(K) =   349.90  PRESS =    -7.3
 Etot   =    -21061.6241  EKtot   =      6688.6783  EPtot      =    -27750.3024
 BOND   =       181.7128  ANGLE   =       451.8688  DIHED      =       933.5093
 1-4 NB =       174.5579  1-4 EEL =      1247.3606  VDWAALS    =      3143.7044
 EELEC  =    -33883.0162  EHBOND  =         0.0000  RESTRAINT  =         0.0000
 EKCMT  =      3018.2067  VIRIAL  =      3035.9702  VOLUME     =     99014.2040
                                                    Density    =         0.9686
 Ewald error estimate:   0.1243E-03
 ------------------------------------------------------------------------------

      R M S  F L U C T U A T I O N S

 NSTEP =  1000000   TIME(PS) =    2100.000  TEMP(K) =     3.43  PRESS =   231.2
 Etot   =       127.2949  EKtot   =        65.6191  EPtot      =       105.2390
 BOND   =        12.9492  ANGLE   =        18.5512  DIHED      =        11.5373
 1-4 NB =         5.5419  1-4 EEL =        19.7785  VDWAALS    =        78.1662
 EELEC  =       142.8546  EHBOND  =         0.0000  RESTRAINT  =         0.0000
 EKCMT  =        49.9786  VIRIAL  =       498.8712  VOLUME     =      1571.4914
                                                    Density    =         0.0132
 Ewald error estimate:   0.9424E-04
 ------------------------------------------------------------------------------
