-------------------------------------------------------
          Amber 12 SANDER                              2012
          -------------------------------------------------------

  [-O]verwriting output

File Assignments:

 Here is the input file:

100ps MD with res on protein
&cntrl
imin   = 0,
irest  = 0,
ntx    = 1,
ntb    = 1,
cut    = 10.0,
ntr    = 1,
ntc    = 2,
ntf    = 2,
tempi  = 0.0,
temp0  = 350,
ntt    = 3,
gamma_ln = 1.0,
nstlim = 50000, dt = 0.002
ntpr = 5000, ntwx = 5000, ntwr = 5000
/
Keep protein fixed with weak restraints
50.0
RES 1 49
END
END

--------------------------------------------------------------------------------
   1.  RESOURCE   USE:
--------------------------------------------------------------------------------

 getting new box info from bottom of inpcrd

 NATOM  =    9415 NTYPES =      17 NBONH =    9006 MBONA  =     415
 NTHETH =     836 MTHETA =     559 NPHIH =    1816 MPHIA  =    1809
 NHPARM =       0 NPARM  =       0 NNB   =   15761 NRES   =    2930
 NBONA  =     415 NTHETA =     559 NPHIA =    1809 NUMBND =      63
 NUMANG =     136 NPTRA  =     221 NATYP =      35 NPHB   =       1
 IFBOX  =       1 NMXRS  =      24 IFCAP =       0 NEXTRA =       0
 NCOPY  =       0

     BOX TYPE: RECTILINEAR

--------------------------------------------------------------------------------
   2.  CONTROL  DATA  FOR  THE  RUN
--------------------------------------------------------------------------------

default_name

General flags:
     imin    =       0, nmropt  =       0

Nature and format of input:
     ntx     =       1, irest   =       0, ntrx    =       1

Nature and format of output:
     ntxo    =       1, ntpr    =    5000, ntrx    =       1, ntwr    =    5000
     iwrap   =       0, ntwx    =    5000, ntwv    =       0, ntwe    =       0
     ioutfm  =       0, ntwprt  =       0, idecomp =       0, rbornstat=      0

Potential function:
     ntf     =       2, ntb     =       1, igb     =       0, nsnb    =      25
     ipol    =       0, gbsa    =       0, iesp    =       0
     dielc   =   1.00000, cut     =  10.00000, intdiel =   1.00000

Frozen or restrained atoms:
     ibelly  =       0, ntr     =       1
     restraint_wt =   0.00000

Molecular dynamics:
     nstlim  =     50000, nscm    =         0, nrespa  =         1
     t       =   0.00000, dt      =   0.00200, vlimit  =  20.00000

Langevin dynamics temperature regulation:
     ig      =   71277
     temp0   = 350.00000, tempi   =   0.00000, gamma_ln=   1.00000

SHAKE:
     ntc     =       2, jfastw  =       0
     tol     =   0.00001

Ewald parameters:
     verbose =       0, ew_type =       0, nbflag  =       1, use_pme =       1
     vdwmeth =       1, eedmeth =       1, netfrc  =       1
     Box X =   50.172   Box Y =   52.317   Box Z =   49.050
     Alpha =   90.000   Beta  =   90.000   Gamma =   90.000
     NFFT1 =   54       NFFT2 =   54       NFFT3 =   50
     Cutoff=   10.000   Tol   =0.100E-04
     Ewald Coefficient =  0.27511
     Interpolation order =    4

    LOADING THE CONSTRAINED ATOMS AS GROUPS

   5.  REFERENCE ATOM COORDINATES

  default_name
    ----- READING GROUP     1; TITLE:
 Keep protein fixed with weak restraints

     GROUP    1 HAS HARMONIC CONSTRAINTS    50.00000
 GRP    1 RES    1 TO    49
      Number of atoms in this group  =   776
    ----- END OF GROUP READ -----

--------------------------------------------------------------------------------
   3.  ATOMIC COORDINATES AND VELOCITIES
--------------------------------------------------------------------------------

default_name
 begin time read from input coords =     0.000 ps

 Number of triangulated 3-point waters found:     2879

     Sum of charges from parm topology file =  -0.00000001
     Forcing neutrality...

--------------------------------------------------------------------------------
   4.  RESULTS
 NSTEP =        0   TIME(PS) =       0.000  TEMP(K) =     0.00  PRESS =     0.0
 Etot   =    -41876.3514  EKtot   =         0.0000  EPtot      =    -41876.3514
 BOND   =        30.0201  ANGLE   =       112.0309  DIHED      =       857.7824
 1-4 NB =       152.1810  1-4 EEL =      1260.8065  VDWAALS    =      8594.4543
 EELEC  =    -52883.6266  EHBOND  =         0.0000  RESTRAINT  =         0.0000
 Ewald error estimate:   0.1564E-03
 ------------------------------------------------------------------------------

      A V E R A G E S   O V E R      10 S T E P S

 NSTEP =    50000   TIME(PS) =     100.000  TEMP(K) =   351.04  PRESS =     0.0
 Etot   =    -19988.1491  EKtot   =      6710.3485  EPtot      =    -26698.4976
 BOND   =       157.9079  ANGLE   =       321.8405  DIHED      =       901.4016
 1-4 NB =       164.7258  1-4 EEL =      1257.2042  VDWAALS    =      3044.2794
 EELEC  =    -32851.5337  EHBOND  =         0.0000  RESTRAINT  =       305.6766
 EAMBER (non-restraint)  =    -27004.1741
 Ewald error estimate:   0.1057E-03
 ------------------------------------------------------------------------------

      R M S  F L U C T U A T I O N S

 NSTEP =    50000   TIME(PS) =     100.000  TEMP(K) =     3.38  PRESS =     0.0
 Etot   =       127.2618  EKtot   =        64.6774  EPtot      =       108.0259
 BOND   =         9.6224  ANGLE   =         9.5405  DIHED      =         7.2346
 1-4 NB =         4.0899  1-4 EEL =        11.7356  VDWAALS    =        85.6106
 EELEC  =       148.2668  EHBOND  =         0.0000  RESTRAINT  =         9.6771
 EAMBER (non-restraint)  =        98.3488
 Ewald error estimate:   0.8650E-04
 ------------------------------------------------------------------------------
