-------------------------------------------------------
          Amber 12 SANDER                              2012
          -------------------------------------------------------

  [-O]verwriting output

File Assignments:

 Here is the input file:

100ps MD with res on protein
&cntrl
imin   = 0,
irest  = 0,
ntx    = 1,
ntb    = 1,
cut    = 10.0,
ntr    = 1,
ntc    = 2,
ntf    = 2,
tempi  = 0.0,
temp0  = 300,
ntt    = 3,
gamma_ln = 1.0,
nstlim = 50000, dt = 0.002
ntpr = 5000, ntwx = 5000, ntwr = 5000
/
Keep protein fixed with weak restraints
50.0
RES 1 1
END
END

--------------------------------------------------------------------------------
   1.  RESOURCE   USE:
--------------------------------------------------------------------------------

 getting new box info from bottom of inpcrd

 NATOM  =    2391 NTYPES =       9 NBONH =    2367 MBONA  =      27
 NTHETH =      70 MTHETA =      45 NPHIH =     138 MPHIA  =     141
 NHPARM =       0 NPARM  =       0 NNB   =    3472 NRES   =     780
 NBONA  =      27 NTHETA =      45 NPHIA =     141 NUMBND =      12
 NUMANG =      19 NPTRA  =      17 NATYP =      11 NPHB   =       1
 IFBOX  =       1 NMXRS  =      54 IFCAP =       0 NEXTRA =       0
 NCOPY  =       0

     BOX TYPE: RECTILINEAR

--------------------------------------------------------------------------------
   2.  CONTROL  DATA  FOR  THE  RUN
--------------------------------------------------------------------------------

default_name

General flags:
     imin    =       0, nmropt  =       0

Nature and format of input:
     ntx     =       1, irest   =       0, ntrx    =       1

Nature and format of output:
     ntxo    =       1, ntpr    =    5000, ntrx    =       1, ntwr    =    5000
     iwrap   =       0, ntwx    =    5000, ntwv    =       0, ntwe    =       0
     ioutfm  =       0, ntwprt  =       0, idecomp =       0, rbornstat=      0

Potential function:
     ntf     =       2, ntb     =       1, igb     =       0, nsnb    =      25
     ipol    =       0, gbsa    =       0, iesp    =       0
     dielc   =   1.00000, cut     =  10.00000, intdiel =   1.00000

Frozen or restrained atoms:
     ibelly  =       0, ntr     =       1
     restraint_wt =   0.00000

Molecular dynamics:
     nstlim  =     50000, nscm    =         0, nrespa  =         1
     t       =   0.00000, dt      =   0.00200, vlimit  =  20.00000

Langevin dynamics temperature regulation:
     ig      =   71277
     temp0   = 300.00000, tempi   =   0.00000, gamma_ln=   1.00000

SHAKE:
     ntc     =       2, jfastw  =       0
     tol     =   0.00001

Ewald parameters:
     verbose =       0, ew_type =       0, nbflag  =       1, use_pme =       1
     vdwmeth =       1, eedmeth =       1, netfrc  =       1
     Box X =   37.968   Box Y =   31.785   Box Z =   30.728
     Alpha =   90.000   Beta  =   90.000   Gamma =   90.000
     NFFT1 =   40       NFFT2 =   32       NFFT3 =   32
     Cutoff=   10.000   Tol   =0.100E-04
     Ewald Coefficient =  0.27511
     Interpolation order =    4

    LOADING THE CONSTRAINED ATOMS AS GROUPS

   5.  REFERENCE ATOM COORDINATES

  default_name
    ----- READING GROUP     1; TITLE:
 Keep protein fixed with weak restraints

     GROUP    1 HAS HARMONIC CONSTRAINTS    50.00000
 GRP    1 RES    1 TO     1
      Number of atoms in this group  =    54
    ----- END OF GROUP READ -----

--------------------------------------------------------------------------------
   3.  ATOMIC COORDINATES AND VELOCITIES
--------------------------------------------------------------------------------

default_name
 begin time read from input coords =     0.000 ps

 Number of triangulated 3-point waters found:      779

     Sum of charges from parm topology file =   0.00000000
     Forcing neutrality...

--------------------------------------------------------------------------------
   4.  RESULTS
 NSTEP =        0   TIME(PS) =       0.000  TEMP(K) =     0.00  PRESS =     0.0
 Etot   =    -10386.3901  EKtot   =         0.0000  EPtot      =    -10386.3901
 BOND   =         4.3758  ANGLE   =        12.5365  DIHED      =        28.5370
 1-4 NB =        14.5039  1-4 EEL =        56.0719  VDWAALS    =      2408.4764
 EELEC  =    -12910.8915  EHBOND  =         0.0000  RESTRAINT  =         0.0000
 Ewald error estimate:   0.1926E-03
 ------------------------------------------------------------------------------

      A V E R A G E S   O V E R      10 S T E P S

 NSTEP =    50000   TIME(PS) =     100.000  TEMP(K) =   300.58  PRESS =     0.0
 Etot   =     -5559.6976  EKtot   =      1435.3417  EPtot      =     -6995.0393
 BOND   =        10.7820  ANGLE   =        28.2659  DIHED      =        29.3159
 1-4 NB =        15.4510  1-4 EEL =        56.0285  VDWAALS    =      1063.0541
 EELEC  =     -8215.3401  EHBOND  =         0.0000  RESTRAINT  =        17.4035
 EAMBER (non-restraint)  =     -7012.4427
 Ewald error estimate:   0.2427E-03
 ------------------------------------------------------------------------------

      R M S  F L U C T U A T I O N S

 NSTEP =    50000   TIME(PS) =     100.000  TEMP(K) =     5.15  PRESS =     0.0
 Etot   =        57.5136  EKtot   =        24.5707  EPtot      =        52.2192
 BOND   =         2.7986  ANGLE   =         2.0587  DIHED      =         0.6138
 1-4 NB =         0.7155  1-4 EEL =         0.8426  VDWAALS    =        45.6398
 EELEC  =        58.3762  EHBOND  =         0.0000  RESTRAINT  =         1.6945
 EAMBER (non-restraint)  =        50.5247
 Ewald error estimate:   0.1993E-03
 ------------------------------------------------------------------------------
