-------------------------------------------------------
          Amber 12 SANDER                              2012
          -------------------------------------------------------

  [-O]verwriting output

File Assignments:

 Here is the input file:

10ps MD
&cntrl
imin = 0, irest = 0, ntx = 1, iwrap=1,
ntb = 2, pres0 = 1.0, ntp = 1,
taup = 2.0,ig=-1,
cut = 10.0, ntr = 0,
ntc = 2, ntf = 2,
tempi = 300, temp0 = 300,
ntt = 3, gamma_ln = 1.0,
nstlim = 5000000, dt = 0.002,
ntpr = 5000, ntwx = 5000, ntwr = 5000
/

Note: ig = -1. Setting random seed based on wallclock time in microseconds
      and disabling the synchronization of random numbers between tasks
      to improve performance.

--------------------------------------------------------------------------------
   1.  RESOURCE   USE:
--------------------------------------------------------------------------------

 getting new box info from bottom of inpcrd

 NATOM  =    2391 NTYPES =       9 NBONH =    2367 MBONA  =      27
 NTHETH =      70 MTHETA =      45 NPHIH =     138 MPHIA  =     141
 NHPARM =       0 NPARM  =       0 NNB   =    3472 NRES   =     780
 NBONA  =      27 NTHETA =      45 NPHIA =     141 NUMBND =      12
 NUMANG =      19 NPTRA  =      17 NATYP =      11 NPHB   =       1
 IFBOX  =       1 NMXRS  =      54 IFCAP =       0 NEXTRA =       0
 NCOPY  =       0

     BOX TYPE: RECTILINEAR

--------------------------------------------------------------------------------
   2.  CONTROL  DATA  FOR  THE  RUN
--------------------------------------------------------------------------------

default_name

General flags:
     imin    =       0, nmropt  =       0

Nature and format of input:
     ntx     =       1, irest   =       0, ntrx    =       1

Nature and format of output:
     ntxo    =       1, ntpr    =    5000, ntrx    =       1, ntwr    =    5000
     iwrap   =       1, ntwx    =    5000, ntwv    =       0, ntwe    =       0
     ioutfm  =       0, ntwprt  =       0, idecomp =       0, rbornstat=      0

Potential function:
     ntf     =       2, ntb     =       2, igb     =       0, nsnb    =      25
     ipol    =       0, gbsa    =       0, iesp    =       0
     dielc   =   1.00000, cut     =  10.00000, intdiel =   1.00000

Frozen or restrained atoms:
     ibelly  =       0, ntr     =       0

Molecular dynamics:
     nstlim  =   5000000, nscm    =      1000, nrespa  =         1
     t       =   0.00000, dt      =   0.00200, vlimit  =  20.00000

Langevin dynamics temperature regulation:
     ig      =    4431
     temp0   = 300.00000, tempi   = 300.00000, gamma_ln=   1.00000

Pressure regulation:
     ntp     =       1
     pres0   =   1.00000, comp    =  44.60000, taup    =   2.00000

SHAKE:
     ntc     =       2, jfastw  =       0
     tol     =   0.00001

Ewald parameters:
     verbose =       0, ew_type =       0, nbflag  =       1, use_pme =       1
     vdwmeth =       1, eedmeth =       1, netfrc  =       1
     Box X =   37.968   Box Y =   31.785   Box Z =   30.728
     Alpha =   90.000   Beta  =   90.000   Gamma =   90.000
     NFFT1 =   40       NFFT2 =   32       NFFT3 =   32
     Cutoff=   10.000   Tol   =0.100E-04
     Ewald Coefficient =  0.27511
     Interpolation order =    4

--------------------------------------------------------------------------------
   3.  ATOMIC COORDINATES AND VELOCITIES
--------------------------------------------------------------------------------

default_name
 begin time read from input coords =   100.000 ps

 Number of triangulated 3-point waters found:      779

     Sum of charges from parm topology file =   0.00000000
     Forcing neutrality...

--------------------------------------------------------------------------------
   4.  RESULTS
 NSTEP =        0   TIME(PS) =     100.000  TEMP(K) =   442.40  PRESS =  -612.2
 Etot   =     -4958.0238  EKtot   =      2112.5495  EPtot      =     -7070.5733
 BOND   =         9.5436  ANGLE   =        22.5672  DIHED      =        29.3760
 1-4 NB =        15.3984  1-4 EEL =        56.6982  VDWAALS    =      1006.1908
 EELEC  =     -8210.3474  EHBOND  =         0.0000  RESTRAINT  =         0.0000
 EKCMT  =       687.2767  VIRIAL  =      1177.4424  VOLUME     =     37082.4528
                                                    Density    =         0.6433
 Ewald error estimate:   0.2140E-03
 ------------------------------------------------------------------------------

      A V E R A G E S   O V E R    1000 S T E P S

 NSTEP =  5000000   TIME(PS) =   10100.000  TEMP(K) =   300.13  PRESS =     6.5
 Etot   =     -5921.3161  EKtot   =      1433.1715  EPtot      =     -7354.4877
 BOND   =        12.6214  ANGLE   =        37.6702  DIHED      =        31.7664
 1-4 NB =        16.2307  1-4 EEL =        59.1656  VDWAALS    =      1090.3425
 EELEC  =     -8602.2845  EHBOND  =         0.0000  RESTRAINT  =         0.0000
 EKCMT  =       699.6176  VIRIAL  =       696.2322  VOLUME     =     24196.4124
                                                    Density    =         0.9860
 Ewald error estimate:   0.2410E-03
 ------------------------------------------------------------------------------

      R M S  F L U C T U A T I O N S

 NSTEP =  5000000   TIME(PS) =   10100.000  TEMP(K) =     6.05  PRESS =   383.7
 Etot   =        52.1562  EKtot   =        28.8869  EPtot      =        42.4780
 BOND   =         3.2667  ANGLE   =         4.0784  DIHED      =         1.5159
 1-4 NB =         1.4702  1-4 EEL =         3.1679  VDWAALS    =        41.4072
 EELEC  =        64.6330  EHBOND  =         0.0000  RESTRAINT  =         0.0000
 EKCMT  =        20.3415  VIRIAL  =       200.7946  VOLUME     =       351.6566
                                                    Density    =         0.0110
 Ewald error estimate:   0.1817E-03
 ------------------------------------------------------------------------------
