-------------------------------------------------------
          Amber 12 SANDER                              2012
          -------------------------------------------------------

  [-O]verwriting output

File Assignments:

 Here is the input file:

10ps MD
 &cntrl
  imin = 0, irest = 0, ntx = 1, iwrap=1,
  ntb = 2, pres0 = 1.0, ntp = 1,
  taup = 2.0,ig=-1,
  cut = 10.0, ntr = 0,
  ntc = 2, ntf = 2,
  tempi = 300.0, temp0 = 300.0,
  ntt = 3, gamma_ln = 1.0,
  nstlim = 250000, dt = 0.002,
  ntpr = 5000, ntwx = 5000, ntwr = 5000
/

Note: ig = -1. Setting random seed based on wallclock time in microseconds
      and disabling the synchronization of random numbers between tasks
      to improve performance.

--------------------------------------------------------------------------------
   1.  RESOURCE   USE:
--------------------------------------------------------------------------------

 getting new box info from bottom of inpcrd

 NATOM  =   30112 NTYPES =      17 NBONH =   28676 MBONA  =    1466
 NTHETH =    3073 MTHETA =    1982 NPHIH =    6375 MPHIA  =    6319
 NHPARM =       0 NPARM  =       0 NNB   =   51739 NRES   =    9287
 NBONA  =    1466 NTHETA =    1982 NPHIA =    6319 NUMBND =      87
 NUMANG =     186 NPTRA  =     267 NATYP =      50 NPHB   =       1
 IFBOX  =       1 NMXRS  =      26 IFCAP =       0 NEXTRA =       0
 NCOPY  =       0

     BOX TYPE: RECTILINEAR

--------------------------------------------------------------------------------
   2.  CONTROL  DATA  FOR  THE  RUN
--------------------------------------------------------------------------------

default_name

General flags:
     imin    =       0, nmropt  =       0

Nature and format of input:
     ntx     =       1, irest   =       0, ntrx    =       1

Nature and format of output:
     ntxo    =       1, ntpr    =    5000, ntrx    =       1, ntwr    =    5000
     iwrap   =       1, ntwx    =    5000, ntwv    =       0, ntwe    =       0
     ioutfm  =       0, ntwprt  =       0, idecomp =       0, rbornstat=      0

Potential function:
     ntf     =       2, ntb     =       2, igb     =       0, nsnb    =      25
     ipol    =       0, gbsa    =       0, iesp    =       0
     dielc   =   1.00000, cut     =  10.00000, intdiel =   1.00000

Frozen or restrained atoms:
     ibelly  =       0, ntr     =       0

Molecular dynamics:
     nstlim  =    250000, nscm    =      1000, nrespa  =         1
     t       =   0.00000, dt      =   0.00200, vlimit  =  20.00000

Langevin dynamics temperature regulation:
     ig      =  922784
     temp0   = 300.00000, tempi   = 300.00000, gamma_ln=   1.00000

Pressure regulation:
     ntp     =       1
     pres0   =   1.00000, comp    =  44.60000, taup    =   2.00000

SHAKE:
     ntc     =       2, jfastw  =       0
     tol     =   0.00001

Ewald parameters:
     verbose =       0, ew_type =       0, nbflag  =       1, use_pme =       1
     vdwmeth =       1, eedmeth =       1, netfrc  =       1
     Box X =   77.095   Box Y =   68.414   Box Z =   71.778
     Alpha =   90.000   Beta  =   90.000   Gamma =   90.000
     NFFT1 =   80       NFFT2 =   72       NFFT3 =   72
     Cutoff=   10.000   Tol   =0.100E-04
     Ewald Coefficient =  0.27511
     Interpolation order =    4

--------------------------------------------------------------------------------
   3.  ATOMIC COORDINATES AND VELOCITIES
--------------------------------------------------------------------------------

default_name
 begin time read from input coords =   100.000 ps

 Number of triangulated 3-point waters found:     9106

     Sum of charges from parm topology file =  -0.00000010
     Forcing neutrality...

--------------------------------------------------------------------------------
   4.  RESULTS
 NSTEP =        0   TIME(PS) =     100.000  TEMP(K) =   440.99  PRESS =  -295.9
 Etot   =    -64073.9704  EKtot   =     27017.4598  EPtot      =    -91091.4302
 BOND   =       507.2835  ANGLE   =      1104.1161  DIHED      =      3046.1798
 1-4 NB =       598.8309  1-4 EEL =      6578.1351  VDWAALS    =     11146.2517
 EELEC  =   -114072.2273  EHBOND  =         0.0000  RESTRAINT  =         0.0000
 EKCMT  =      8113.6164  VIRIAL  =     10532.5791  VOLUME     =    378582.5542
                                                    Density    =         0.8093
 Ewald error estimate:   0.4509E-04
 ------------------------------------------------------------------------------

      A V E R A G E S   O V E R      50 S T E P S

 NSTEP =   250000   TIME(PS) =     600.000  TEMP(K) =   300.44  PRESS =   -52.5
 Etot   =    -73678.0036  EKtot   =     18406.4059  EPtot      =    -92084.4095
 BOND   =       556.2570  ANGLE   =      1453.8140  DIHED      =      3112.9596
 1-4 NB =       629.8500  1-4 EEL =      6504.1641  VDWAALS    =     11292.2524
 EELEC  =   -115633.7067  EHBOND  =         0.0000  RESTRAINT  =         0.0000
 EKCMT  =      8189.3373  VIRIAL  =      8547.4432  VOLUME     =    303554.3102
                                                    Density    =         1.0101
 Ewald error estimate:   0.6667E-04
 ------------------------------------------------------------------------------

      R M S  F L U C T U A T I O N S

 NSTEP =   250000   TIME(PS) =     600.000  TEMP(K) =     1.43  PRESS =   187.4
 Etot   =       331.0997  EKtot   =        87.5446  EPtot      =       319.9095
 BOND   =        18.7219  ANGLE   =        30.1099  DIHED      =        18.9947
 1-4 NB =        10.4967  1-4 EEL =        31.8902  VDWAALS    =       141.0188
 EELEC  =       371.6665  EHBOND  =         0.0000  RESTRAINT  =         0.0000
 EKCMT  =        71.0662  VIRIAL  =      1257.0924  VOLUME     =      9287.8493
                                                    Density    =         0.0271
 Ewald error estimate:   0.5701E-04
 ------------------------------------------------------------------------------
